# ****************************************************************************
# *  Author(s): Shaza Hanif                        *
# *                                                                          *
# ***************************************************************************/

[General]

# =============================================
# Always include the main Castalia.ini file
# =============================================
include ../Parameters/Castalia.ini


sim-time-limit = 124s

SN.field_x = 20	# meters
SN.field_y = 20	# meters

SN.numNodes = 10
SN.deployment = "[1..9]->3x3"
SN.node[0].xCoor = 1  #Sink location should be consistent with  startup() sink location
SN.node[0].yCoor = 0
SN.node[0].Application.calculateEnergy = false #no need to make stat calculations about sink

# important wireless channel switch to allow mobility
SN.wirelessChannel.onlyStaticNodes = true
SN.wirelessChannel.sigma = 0
SN.wirelessChannel.bidirectionalSigma = 0

# Choose a radio and set the Tx power to a low value so
# that node's mobility has a better effect on connectivity
SN.node[*].Communication.Radio.RadioParametersFile = "../Parameters/Radio/CC2420.txt"
SN.node[*].Communication.Radio.TxOutputPower = "-10dBm"

# Nodes location may become visible
#SN.node[*].MobilityManager.collectTraceInfo = true

SN.node[*].Communication.RoutingProtocolName = "MultipathRingsRoutingIot"
SN.node[0].Application.isSink = true  
SN.node[*].Application.reportDestination = "0"
#SN.node[*].Communication.Routing.netSetupTimeout = 200
#SN.node[*].Communication.MACProtocolName = "TunableMAC"
SN.node[*].Communication.Radio.collisionModel = 0 ##used by REL people
SN.node[*].Communication.MACProtocolName = "TMAC" #used by value reporting for multipathRingsRouting
SN.node[*].Communication.MAC.allowSinkSync = true
#SN.node[*].Communication.MACProtocolName = "BypassMAC" 
SN.node[*].Communication.Radio.mode = "IDEAL" #I found out by exploration, but have to check if it has impact
#for TunableMac, the reception rate is higher if I don't set it IDEAL. for bypass mac and TMAC, setting IDEAK yields better results
SN.node[*].Communication.Routing.duplicateRebroadcastAtNodeEnable = true

SN.node[*].ApplicationName = "ThroughputTest"
#SN.node[*].ApplicationName = "OldApp"
SN.node[*].Application.packet_rate = 0.1
SN.node[*].Application.startupDelay = 5

SN.node[*].Application.collectTraceInfo = true
SN.node[*].Communication.Routing.collectTraceInfo = true
SN.node[0].Communication.MAC.collectTraceInfo = true
SN.node[17].Communication.MAC.collectTraceInfo = true
SN.node[*].ResourceManager.collectTraceInfo = false
SN.node[*].MobilityManager.collectTraceInfo = false

# ==========================================================================================
[Config varyDisAbleRebroadCast]
SN.node[*].Communication.Routing.duplicateRebroadcastAtNodeEnable = ${reBroad=true,false}

# ==========================================================================================
[Config varyMac]
SN.node[*].Communication.MACProtocolName = ${Mac="BypassMAC","TMAC","TunableMAC"}

# ==========================================================================================
[Config oneIot]
SN.numNodes = 11

SN.node[*].Communication.Routing.iotIdsStartFrom = 10
SN.node[10].Communication.Routing.isMobile = true
SN.node[10].Application.calculateEnergy = false

SN.node[10].xCoor = 20
SN.node[10].yCoor = 20

# important wireless channel switch to allow mobility
SN.wirelessChannel.onlyStaticNodes = false

## setting mobility for node[10]
SN.node[10].MobilityManagerName = "LineMobilityManager"
SN.node[10].MobilityManager.updateInterval = 1000 #earlier value was 100
SN.node[10].MobilityManager.xCoorDestination = 0
SN.node[10].MobilityManager.yCoorDestination = 0
SN.node[10].MobilityManager.speed = 1 
#As per my analysis, if speed is 1, then it means 1 point distance of field in one 
#sec. If its 10 then 10 points distance.
# ==========================================================================================
[Config twoIot]
SN.numNodes = 12
SN.node[*].Communication.Routing.iotIdsStartFrom = 10
SN.node[10..11].Communication.Routing.isMobile = true
SN.node[10].xCoor = 20
SN.node[10].yCoor = 20
SN.node[11].xCoor = 20
SN.node[11].yCoor = 0

#Energy not tracked for IoT
SN.node[10..11].Application.calculateEnergy = false

# important wireless channel switch to allow mobility
SN.wirelessChannel.onlyStaticNodes = false

## setting mobility for node[10]
SN.node[10..11].MobilityManagerName = "LineMobilityManager"
SN.node[10..11].MobilityManager.updateInterval = 1000 #earlier value was 100
SN.node[10..11].MobilityManager.xCoorDestination = 0
SN.node[10..11].MobilityManager.yCoorDestination = 0
SN.node[10].MobilityManager.speed = 1 
SN.node[11].MobilityManager.speed = 1
#As per my analysis, if speed is 1, then it means 1 point distance of field in one 
#sec. If its 10 then 10 points distance.

# ===========================================================================================
[Config SN16-Iot0-disAbleRebroadCast]
SN.field_x = 28	# meters
SN.field_y = 28	# meters
SN.numNodes = 17
SN.deployment = "[1..16]->4x4"

SN.node[0].xCoor = 1  #Node 0 is SINK
SN.node[0].yCoor = 0

# ======================================================================================================
[Config SN16-Iot0]
SN.field_x = 28	# meters
SN.field_y = 28	# meters
SN.numNodes = 17
SN.deployment = "[1..16]->4x4"

SN.node[0].xCoor = 1  #Node 0 is SINK
SN.node[0].yCoor = 0

# ========================================================================================================
[Config SN16-Iot1]
SN.field_x = 28	# meters
SN.field_y = 28	# meters
SN.numNodes = 18
SN.deployment = "[1..16]->4x4"
SN.node[*].Communication.Routing.iotIdsStartFrom = 17
SN.node[17].Communication.Routing.isMobile = true # IoT
SN.node[17].Application.calculateEnergy = false

#Start positions of IoT
SN.node[17].xCoor = 28
SN.node[17].yCoor = 28

# important wireless channel switch to allow mobility
SN.wirelessChannel.onlyStaticNodes = false

## setting mobility for node[10]
SN.node[17].MobilityManagerName = "LineMobilityManager"
SN.node[17].MobilityManager.updateInterval = 1000 #earlier value was 100
SN.node[17].MobilityManager.xCoorDestination = 0
SN.node[17].MobilityManager.yCoorDestination = 0
SN.node[17].MobilityManager.speed = 1 

# ========================================================================================================
[Config SN16-Iot2]
SN.field_x = 28	# meters
SN.field_y = 28	# meters
SN.numNodes = 19
SN.deployment = "[1..16]->4x4"
SN.node[*].Communication.Routing.iotIdsStartFrom = 17
SN.node[17..18].Communication.Routing.isMobile = true # IoT
SN.node[17..18].Application.calculateEnergy = false


#Start positions of IoT's
SN.node[17].xCoor = 25
SN.node[17].yCoor = 28
SN.node[18].xCoor = 28
SN.node[18].yCoor = 23

# important wireless channel switch to allow mobility
SN.wirelessChannel.onlyStaticNodes = false

## setting mobility for node[10]
SN.node[17..18].MobilityManagerName = "LineMobilityManager"
SN.node[17..18].MobilityManager.updateInterval = 1000 #earlier value was 100
SN.node[17].MobilityManager.xCoorDestination = 0
SN.node[17].MobilityManager.yCoorDestination = 2
SN.node[18].MobilityManager.xCoorDestination = 2
SN.node[18].MobilityManager.yCoorDestination = 0
SN.node[17].MobilityManager.speed = 1.2 
SN.node[18].MobilityManager.speed = 1

# ================================================================================================
[Config SN16-Iot3]
SN.field_x = 28	# meters
SN.field_y = 28	# meters
SN.numNodes = 20
SN.deployment = "[1..16]->4x4"
SN.node[*].Communication.Routing.iotIdsStartFrom = 17
SN.node[17..19].Communication.Routing.isMobile = true # IoT
SN.node[17..19].Application.calculateEnergy = false


#Start positions of IoT's
SN.node[17].xCoor = 0
SN.node[17].yCoor = 28
SN.node[18].xCoor = 28
SN.node[18].yCoor = 28
SN.node[19].xCoor = 28
SN.node[19].yCoor = 0

# important wireless channel switch to allow mobility
SN.wirelessChannel.onlyStaticNodes = false

## setting mobility for node[10]
SN.node[17..19].MobilityManagerName = "LineMobilityManager"
SN.node[17..19].MobilityManager.updateInterval = 1000 #earlier value was 100
SN.node[17].MobilityManager.xCoorDestination = 0
SN.node[17].MobilityManager.yCoorDestination = 2
SN.node[18].MobilityManager.xCoorDestination = 0
SN.node[18].MobilityManager.yCoorDestination = 0
SN.node[19].MobilityManager.xCoorDestination = 2
SN.node[19].MobilityManager.yCoorDestination = 0
SN.node[17].MobilityManager.speed = 1.2 
SN.node[18].MobilityManager.speed = 1
SN.node[19].MobilityManager.speed = 1.1

# ======================================================================================================
[Config SN32-Iot0]
SN.field_x = 35	# meters
SN.field_y = 35	# meters
SN.numNodes = 32
SN.deployment = "uniform"

SN.node[0].xCoor = 17.5  #Node 0 is SINK in middle
SN.node[0].yCoor = 17.5

# important wireless channel switch to allow mobility
SN.wirelessChannel.onlyStaticNodes = true
# ================================================================================================
[Config SN32-Iot1]
SN.field_x = 35	# meters
SN.field_y = 35	# meters
SN.numNodes = 33
SN.deployment = "uniform"

SN.node[0].xCoor = 17.5  #Node 0 is SINK in middle
SN.node[0].yCoor = 17.5

SN.node[*].Communication.Routing.iotIdsStartFrom = 32
SN.node[32].Communication.Routing.isMobile = true #IoT
SN.node[32].Application.calculateEnergy = false


#Start positions of IoT's
SN.node[32].xCoor = 35
SN.node[32].yCoor = 35


# important wireless channel switch to allow mobility
SN.wirelessChannel.onlyStaticNodes = false

## setting mobility for IoT
SN.node[32].MobilityManagerName = "LineMobilityManager"
SN.node[32].MobilityManager.updateInterval = 1000 #earlier value was 100
SN.node[32].MobilityManager.xCoorDestination = 17
SN.node[32].MobilityManager.yCoorDestination = 17
SN.node[32].MobilityManager.speed = 1 

# ================================================================================================
[Config SN32-Iot3]
SN.field_x = 35	# meters
SN.field_y = 35	# meters
SN.numNodes = 35
SN.deployment = "uniform"

SN.node[0].xCoor = 17.5  #Node 0 is SINK in middle
SN.node[0].yCoor = 17.5

SN.node[*].Communication.Routing.iotIdsStartFrom = 32
SN.node[32..34].Communication.Routing.isMobile = true #IoT
SN.node[32..34].Application.calculateEnergy = false



#Start positions of IoT's
SN.node[32].xCoor = 0
SN.node[32].yCoor = 0
SN.node[33].xCoor = 35
SN.node[33].yCoor = 35
SN.node[34].xCoor = 35
SN.node[34].yCoor = 0

# important wireless channel switch to allow mobility
SN.wirelessChannel.onlyStaticNodes = false

## setting mobility for Iot
SN.node[32..34].MobilityManagerName = "LineMobilityManager"
SN.node[32..34].MobilityManager.updateInterval = 1000 #earlier value was 100
SN.node[32].MobilityManager.xCoorDestination = 17
SN.node[32].MobilityManager.yCoorDestination = 17
SN.node[33].MobilityManager.xCoorDestination = 17.5
SN.node[33].MobilityManager.yCoorDestination = 17.5
SN.node[34].MobilityManager.xCoorDestination = 18
SN.node[34].MobilityManager.yCoorDestination = 17
SN.node[32].MobilityManager.speed = 1.2 
SN.node[33].MobilityManager.speed = 1
SN.node[34].MobilityManager.speed = 1.1

# ================================================================================================
[Config SN32-Iot4]
SN.field_x = 35	# meters
SN.field_y = 35	# meters
SN.numNodes = 36
SN.deployment = "uniform"

SN.node[0].xCoor = 17.5  #Node 0 is SINK in middle
SN.node[0].yCoor = 17.5

SN.node[*].Communication.Routing.iotIdsStartFrom = 32
SN.node[32..35].Communication.Routing.isMobile = true #IoT
SN.node[32..35].Application.calculateEnergy = false


#Start positions of IoT's
SN.node[32].xCoor = 0
SN.node[32].yCoor = 0
SN.node[33].xCoor = 35
SN.node[33].yCoor = 35
SN.node[34].xCoor = 35
SN.node[34].yCoor = 0
SN.node[35].xCoor = 0
SN.node[35].yCoor = 35


# important wireless channel switch to allow mobility
SN.wirelessChannel.onlyStaticNodes = false

## setting mobility for Iot
SN.node[32..35].MobilityManagerName = "LineMobilityManager"
SN.node[32..35].MobilityManager.updateInterval = 1000 #earlier value was 100
SN.node[32].MobilityManager.xCoorDestination = 17
SN.node[32].MobilityManager.yCoorDestination = 17
SN.node[33].MobilityManager.xCoorDestination = 17.5
SN.node[33].MobilityManager.yCoorDestination = 17.5
SN.node[34].MobilityManager.xCoorDestination = 18
SN.node[34].MobilityManager.yCoorDestination = 17
SN.node[35].MobilityManager.xCoorDestination = 16.8
SN.node[35].MobilityManager.yCoorDestination = 18.2
SN.node[32].MobilityManager.speed = 1.2 
SN.node[33].MobilityManager.speed = 1
SN.node[34].MobilityManager.speed = 1.1
SN.node[35].MobilityManager.speed = 1.05

# ======================================================================================================
[Config SN50-Iot0]
SN.field_x = 40	# meters
SN.field_y = 40	# meters
SN.numNodes = 50
SN.deployment = "uniform"

SN.node[0].xCoor = 20  #Node 0 is SINK in middle
SN.node[0].yCoor = 20

# important wireless channel switch to allow mobility
SN.wirelessChannel.onlyStaticNodes = true

# ======================================================================================================
[Config SN50-Iot1]
SN.field_x = 40	# meters
SN.field_y = 40	# meters
SN.numNodes = 51
SN.deployment = "uniform"

SN.node[0].xCoor = 20  #Node 0 is SINK in middle
SN.node[0].yCoor = 20

# important wireless channel switch to allow mobility
SN.wirelessChannel.onlyStaticNodes = false

SN.node[*].Communication.Routing.iotIdsStartFrom = 50
SN.node[50].Communication.Routing.isMobile = true #IoT
SN.node[50].Application.calculateEnergy = false

#Start positions of IoT's
SN.node[50].xCoor = 38.5
SN.node[50].yCoor = 38.5


## setting mobility for IoT
SN.node[50].MobilityManagerName = "LineMobilityManager"
SN.node[50].MobilityManager.updateInterval = 1000 #earlier value was 100
SN.node[50].MobilityManager.xCoorDestination = 21
SN.node[50].MobilityManager.yCoorDestination = 21
SN.node[50].MobilityManager.speed = 1 

# ======================================================================================================
[Config SN50-Iot2]
SN.field_x = 40	# meters
SN.field_y = 40	# meters
SN.numNodes = 52
SN.deployment = "uniform"

SN.node[0].xCoor = 20  #Node 0 is SINK in middle
SN.node[0].yCoor = 20

# important wireless channel switch to allow mobility
SN.wirelessChannel.onlyStaticNodes = false

SN.node[*].Communication.Routing.iotIdsStartFrom = 50
SN.node[50..51].Communication.Routing.isMobile = true #IoT
SN.node[50..51].Application.calculateEnergy = false

#Start positions of IoT's
SN.node[50].xCoor = 38.5
SN.node[50].yCoor = 38.5
SN.node[51].xCoor = 1
SN.node[51].yCoor = 1

## setting mobility for IoT
SN.node[50..51].MobilityManagerName = "LineMobilityManager"
SN.node[50..51].MobilityManager.updateInterval = 1000 #earlier value was 100
SN.node[50].MobilityManager.xCoorDestination = 21
SN.node[50].MobilityManager.yCoorDestination = 21
SN.node[51].MobilityManager.xCoorDestination = 19
SN.node[51].MobilityManager.yCoorDestination = 19
SN.node[50].MobilityManager.speed = 1 
SN.node[51].MobilityManager.speed = 1.1
# ======================================================================================================
[Config SN50-Iot3]
SN.field_x = 40	# meters
SN.field_y = 40	# meters
SN.numNodes = 53
SN.deployment = "uniform"

SN.node[0].xCoor = 20  #Node 0 is SINK in middle
SN.node[0].yCoor = 20

# important wireless channel switch to allow mobility
SN.wirelessChannel.onlyStaticNodes = false

SN.node[*].Communication.Routing.iotIdsStartFrom = 50
SN.node[50..52].Communication.Routing.isMobile = true #IoT
SN.node[50..52].Application.calculateEnergy = false

#Start positions of IoT's
SN.node[50].xCoor = 38.5
SN.node[50].yCoor = 38.5
SN.node[51].xCoor = 1
SN.node[51].yCoor = 1
SN.node[52].xCoor = 39
SN.node[52].yCoor = 2

## setting mobility for IoT
SN.node[50..52].MobilityManagerName = "LineMobilityManager"
SN.node[50..52].MobilityManager.updateInterval = 1000 #earlier value was 100
SN.node[50].MobilityManager.xCoorDestination = 21
SN.node[50].MobilityManager.yCoorDestination = 21
SN.node[51].MobilityManager.xCoorDestination = 19
SN.node[51].MobilityManager.yCoorDestination = 19
SN.node[52].MobilityManager.xCoorDestination = 21
SN.node[52].MobilityManager.yCoorDestination = 19
SN.node[50].MobilityManager.speed = 1 
SN.node[51].MobilityManager.speed = 1.1
SN.node[52].MobilityManager.speed = 0.9

# ======================================================================================================
[Config SN50-Iot4]
SN.field_x = 40	# meters
SN.field_y = 40	# meters
SN.numNodes = 54
SN.deployment = "uniform"

SN.node[0].xCoor = 20  #Node 0 is SINK in middle
SN.node[0].yCoor = 20

# important wireless channel switch to allow mobility
SN.wirelessChannel.onlyStaticNodes = false

SN.node[*].Communication.Routing.iotIdsStartFrom = 50
SN.node[50..53].Communication.Routing.isMobile = true #IoT
SN.node[50..53].Application.calculateEnergy = false

#Start positions of IoT's
SN.node[50].xCoor = 38.5
SN.node[50].yCoor = 38.5
SN.node[51].xCoor = 1
SN.node[51].yCoor = 1
SN.node[52].xCoor = 39
SN.node[52].yCoor = 2
SN.node[53].xCoor = 2
SN.node[53].yCoor = 39

## setting mobility for IoT
SN.node[50..53].MobilityManagerName = "LineMobilityManager"
SN.node[50..53].MobilityManager.updateInterval = 1000 #earlier value was 100
SN.node[50].MobilityManager.xCoorDestination = 21
SN.node[50].MobilityManager.yCoorDestination = 21
SN.node[51].MobilityManager.xCoorDestination = 19
SN.node[51].MobilityManager.yCoorDestination = 19
SN.node[52].MobilityManager.xCoorDestination = 21
SN.node[52].MobilityManager.yCoorDestination = 19
SN.node[53].MobilityManager.xCoorDestination = 19
SN.node[53].MobilityManager.yCoorDestination = 21
SN.node[50].MobilityManager.speed = 1 
SN.node[51].MobilityManager.speed = 1.1
SN.node[52].MobilityManager.speed = 0.9
SN.node[53].MobilityManager.speed = 1.2

# ======================================================================================================
[Config SN50-Iot6]
SN.field_x = 40	# meters
SN.field_y = 40	# meters
SN.numNodes = 56
SN.deployment = "uniform"

SN.node[0].xCoor = 20  #Node 0 is SINK in middle
SN.node[0].yCoor = 20

# important wireless channel switch to allow mobility
SN.wirelessChannel.onlyStaticNodes = false

SN.node[*].Communication.Routing.iotIdsStartFrom = 50
SN.node[50..55].Communication.Routing.isMobile = true #IoT
SN.node[50..55].Application.calculateEnergy = false

#Start positions of IoT's
SN.node[50].xCoor = 38.5
SN.node[50].yCoor = 38.5
SN.node[51].xCoor = 1
SN.node[51].yCoor = 1
SN.node[52].xCoor = 39
SN.node[52].yCoor = 2
SN.node[53].xCoor = 2
SN.node[53].yCoor = 39
SN.node[54].xCoor = 20
SN.node[54].yCoor = 38.5
SN.node[55].xCoor = 20
SN.node[55].yCoor = 1.5

## setting mobility for IoT
SN.node[50..55].MobilityManagerName = "LineMobilityManager"
SN.node[50..55].MobilityManager.updateInterval = 1000 #earlier value was 100
SN.node[50].MobilityManager.xCoorDestination = 21
SN.node[50].MobilityManager.yCoorDestination = 21
SN.node[51].MobilityManager.xCoorDestination = 19
SN.node[51].MobilityManager.yCoorDestination = 19
SN.node[52].MobilityManager.xCoorDestination = 21
SN.node[52].MobilityManager.yCoorDestination = 19
SN.node[53].MobilityManager.xCoorDestination = 19
SN.node[53].MobilityManager.yCoorDestination = 21
SN.node[54].MobilityManager.xCoorDestination = 20
SN.node[54].MobilityManager.yCoorDestination = 22
SN.node[55].MobilityManager.xCoorDestination = 20
SN.node[55].MobilityManager.yCoorDestination = 18
SN.node[50].MobilityManager.speed = 1 
SN.node[51].MobilityManager.speed = 1.1
SN.node[52].MobilityManager.speed = 0.9
SN.node[53].MobilityManager.speed = 1.2
SN.node[54].MobilityManager.speed = 0.95
SN.node[55].MobilityManager.speed = 1.05

# ======================================================================================================
[Config SN50-Iot8]
SN.field_x = 40	# meters
SN.field_y = 40	# meters
SN.numNodes = 58
SN.deployment = "uniform"

SN.node[0].xCoor = 20  #Node 0 is SINK in middle
SN.node[0].yCoor = 20

# important wireless channel switch to allow mobility
SN.wirelessChannel.onlyStaticNodes = false

SN.node[*].Communication.Routing.iotIdsStartFrom = 50
SN.node[50..57].Communication.Routing.isMobile = true #IoT
SN.node[50..57].Application.calculateEnergy = false

#Start positions of IoT's
SN.node[50].xCoor = 38.5
SN.node[50].yCoor = 38.5
SN.node[51].xCoor = 1
SN.node[51].yCoor = 1
SN.node[52].xCoor = 39
SN.node[52].yCoor = 2
SN.node[53].xCoor = 2
SN.node[53].yCoor = 39
SN.node[54].xCoor = 20
SN.node[54].yCoor = 38.5
SN.node[55].xCoor = 20
SN.node[55].yCoor = 1.5
SN.node[56].xCoor = 38.5
SN.node[56].yCoor = 20
SN.node[57].xCoor = 1.5
SN.node[57].yCoor = 20

## setting mobility for IoT
SN.node[50..57].MobilityManagerName = "LineMobilityManager"
SN.node[50..57].MobilityManager.updateInterval = 1000 #earlier value was 100
SN.node[50].MobilityManager.xCoorDestination = 21
SN.node[50].MobilityManager.yCoorDestination = 21
SN.node[51].MobilityManager.xCoorDestination = 19
SN.node[51].MobilityManager.yCoorDestination = 19
SN.node[52].MobilityManager.xCoorDestination = 21
SN.node[52].MobilityManager.yCoorDestination = 19
SN.node[53].MobilityManager.xCoorDestination = 19
SN.node[53].MobilityManager.yCoorDestination = 21
SN.node[54].MobilityManager.xCoorDestination = 20
SN.node[54].MobilityManager.yCoorDestination = 22
SN.node[55].MobilityManager.xCoorDestination = 20
SN.node[55].MobilityManager.yCoorDestination = 18
SN.node[56].MobilityManager.xCoorDestination = 21.2
SN.node[56].MobilityManager.yCoorDestination = 20
SN.node[57].MobilityManager.xCoorDestination = 18.5
SN.node[57].MobilityManager.yCoorDestination = 20
SN.node[50].MobilityManager.speed = 1 
SN.node[51].MobilityManager.speed = 1.1
SN.node[52].MobilityManager.speed = 0.9
SN.node[53].MobilityManager.speed = 1.2
SN.node[54].MobilityManager.speed = 0.95
SN.node[55].MobilityManager.speed = 1.05


